Version 4
SHEET 1 896 680
WIRE 144 112 96 112
WIRE 288 112 224 112
WIRE 192 208 192 192
WIRE 96 224 96 112
WIRE 160 224 96 224
WIRE 288 240 288 112
WIRE 288 240 224 240
WIRE 320 240 288 240
WIRE 160 256 -224 256
WIRE -224 272 -224 256
WIRE 96 272 96 224
WIRE 192 288 192 272
WIRE -224 368 -224 352
WIRE 96 368 96 352
WIRE 48 560 48 544
WIRE 176 560 176 544
WIRE 48 656 48 640
WIRE 176 656 176 640
FLAG 176 656 0
FLAG 192 192 +V
FLAG 176 544 +V
FLAG 192 288 -V
FLAG 48 656 0
FLAG 48 544 -V
FLAG -224 368 0
FLAG 96 368 0
SYMBOL voltage 176 544 R0
WINDOW 123 0 0 Left 0
WINDOW 39 0 0 Left 0
SYMATTR InstName V1
SYMATTR Value 15
SYMBOL voltage 48 544 R0
SYMATTR InstName V2
SYMATTR Value -15
SYMBOL res 240 96 R90
WINDOW 0 0 56 VBottom 2
WINDOW 3 32 56 VTop 2
SYMATTR InstName R1
SYMATTR Value 10k
SYMBOL opamps\\LT1012 192 176 R0
SYMATTR InstName U1
SYMBOL res 80 256 R0
SYMATTR InstName R6
SYMATTR Value 10k
SYMBOL voltage -224 256 R0
WINDOW 123 0 0 Left 0
WINDOW 39 0 0 Left 0
SYMATTR InstName V4
SYMATTR Value SINE(0 1 1k)
TEXT 408 320 Left 2 !.tran 10m
TEXT 120 56 Bottom 2 ;Instrumentation Amplifier with ±100V Common Mode Range
