Version 4
SHEET 1 1868 2100
WIRE -960 144 -1008 144
WIRE -784 144 -880 144
WIRE -592 144 -704 144
WIRE -528 144 -592 144
WIRE -1008 192 -1008 144
WIRE -592 208 -592 144
WIRE -1008 336 -1008 272
WIRE -800 336 -1008 336
WIRE -592 336 -592 272
WIRE -592 336 -800 336
WIRE -800 400 -800 336
FLAG -528 144 Out
IOPIN -528 144 Out
FLAG -800 400 0
SYMBOL res -864 128 R90
WINDOW 0 0 56 VBottom 2
WINDOW 3 32 56 VTop 2
SYMATTR InstName R1
SYMATTR Value 1000
SYMBOL ind -800 160 R270
WINDOW 0 32 56 VTop 2
WINDOW 3 5 56 VBottom 2
SYMATTR InstName L1
SYMATTR Value .01
SYMBOL cap -608 208 R0
SYMATTR InstName C1
SYMATTR Value .000001
SYMBOL voltage -1008 176 R0
WINDOW 123 24 122 Left 2
WINDOW 39 0 0 Left 0
SYMATTR InstName V1
SYMATTR Value ""
SYMATTR Value2 AC 1 0
TEXT -1000 384 Left 2 !.ac dec 10 1 100k
